<routes>
            <vType id="car" accel="0.8" decel="4.5" sigma="0.5" length="5" minGap="2.5" maxSpeed="16.67"     guiShape="passenger"/>
            <vType id="bus" accel="0.8" decel="4.5" sigma="0.5" length="7" minGap="3" maxSpeed="25" guiShape="bus"/>

            <route id="left_right" edges="gneE4 gneE1"/>
            <route id="right_left" edges="gneE5 gneE0"/>
            <route id="left_down" edges="gneE4 gneE2"/>
            <route id="right_down" edges="gneE5 gneE2"/>
            <route id="down_left" edges="gneE6 gneE0"/>
            <route id="down_right" edges="gneE6 gneE1"/>
    <vehicle id="right_left_0" type="car" route="right_left" depart="2" />
    <vehicle id="right_down_1" type="car" route="right_down" depart="4" />
    <vehicle id="down_left_2" type="car" route="down_left" depart="4" />
    <vehicle id="right_left_3" type="car" route="right_left" depart="6" />
    <vehicle id="right_left_4" type="car" route="right_left" depart="7" />
    <vehicle id="right_left_5" type="car" route="right_left" depart="9" />
    <vehicle id="left_down_6" type="car" route="left_down" depart="12" />
    <vehicle id="left_right_7" type="car" route="left_right" depart="13" />
    <vehicle id="down_right_8" type="car" route="down_right" depart="16" />
    <vehicle id="left_right_9" type="car" route="left_right" depart="17" />
    <vehicle id="left_down_10" type="car" route="left_down" depart="22" />
    <vehicle id="left_right_11" type="car" route="left_right" depart="28" />
    <vehicle id="right_left_12" type="car" route="right_left" depart="33" />
    <vehicle id="left_down_13" type="car" route="left_down" depart="36" />
    <vehicle id="right_left_14" type="car" route="right_left" depart="38" />
    <vehicle id="down_right_15" type="car" route="down_right" depart="39" />
    <vehicle id="left_right_16" type="car" route="left_right" depart="45" />
    <vehicle id="right_down_17" type="car" route="right_down" depart="45" />
    <vehicle id="right_down_18" type="car" route="right_down" depart="46" />
    <vehicle id="left_right_19" type="car" route="left_right" depart="50" />
    <vehicle id="down_right_20" type="car" route="down_right" depart="51" />
    <vehicle id="down_left_21" type="car" route="down_left" depart="54" />
    <vehicle id="down_left_22" type="car" route="down_left" depart="57" />
    <vehicle id="down_right_23" type="car" route="down_right" depart="57" />
    <vehicle id="left_right_24" type="car" route="left_right" depart="58" />
    <vehicle id="right_left_25" type="car" route="right_left" depart="58" />
    <vehicle id="left_right_26" type="car" route="left_right" depart="59" />
    <vehicle id="left_right_27" type="car" route="left_right" depart="60" />
    <vehicle id="down_left_28" type="car" route="down_left" depart="60" />
    <vehicle id="left_right_29" type="car" route="left_right" depart="63" />
    <vehicle id="left_down_30" type="car" route="left_down" depart="67" />
    <vehicle id="right_left_31" type="car" route="right_left" depart="74" />
    <vehicle id="right_left_32" type="car" route="right_left" depart="79" />
    <vehicle id="down_right_33" type="car" route="down_right" depart="80" />
    <vehicle id="down_right_34" type="car" route="down_right" depart="83" />
    <vehicle id="down_left_35" type="car" route="down_left" depart="85" />
    <vehicle id="right_left_36" type="car" route="right_left" depart="88" />
    <vehicle id="down_left_37" type="car" route="down_left" depart="89" />
    <vehicle id="right_left_38" type="car" route="right_left" depart="90" />
    <vehicle id="left_right_39" type="car" route="left_right" depart="91" />
    <vehicle id="left_down_40" type="car" route="left_down" depart="91" />
    <vehicle id="down_left_41" type="car" route="down_left" depart="91" />
    <vehicle id="left_right_42" type="car" route="left_right" depart="93" />
    <vehicle id="down_right_43" type="car" route="down_right" depart="111" />
    <vehicle id="right_left_44" type="car" route="right_left" depart="116" />
    <vehicle id="right_left_45" type="car" route="right_left" depart="117" />
    <vehicle id="down_left_46" type="car" route="down_left" depart="118" />
    <vehicle id="right_left_47" type="car" route="right_left" depart="120" />
    <vehicle id="left_right_48" type="car" route="left_right" depart="121" />
    <vehicle id="left_right_49" type="car" route="left_right" depart="122" />
    <vehicle id="left_right_50" type="car" route="left_right" depart="124" />
    <vehicle id="down_right_51" type="car" route="down_right" depart="128" />
    <vehicle id="left_down_52" type="car" route="left_down" depart="130" />
    <vehicle id="left_down_53" type="car" route="left_down" depart="131" />
    <vehicle id="right_left_54" type="car" route="right_left" depart="133" />
    <vehicle id="down_right_55" type="car" route="down_right" depart="134" />
    <vehicle id="right_down_56" type="car" route="right_down" depart="137" />
    <vehicle id="left_right_57" type="car" route="left_right" depart="139" />
    <vehicle id="left_right_58" type="car" route="left_right" depart="140" />
    <vehicle id="right_down_59" type="car" route="right_down" depart="142" />
    <vehicle id="right_left_60" type="car" route="right_left" depart="143" />
    <vehicle id="left_down_61" type="car" route="left_down" depart="144" />
    <vehicle id="right_down_62" type="car" route="right_down" depart="145" />
    <vehicle id="right_left_63" type="car" route="right_left" depart="147" />
    <vehicle id="left_down_64" type="car" route="left_down" depart="148" />
    <vehicle id="right_left_65" type="car" route="right_left" depart="151" />
    <vehicle id="down_left_66" type="car" route="down_left" depart="151" />
    <vehicle id="left_right_67" type="car" route="left_right" depart="157" />
    <vehicle id="right_left_68" type="car" route="right_left" depart="157" />
    <vehicle id="right_left_69" type="car" route="right_left" depart="158" />
    <vehicle id="left_right_70" type="car" route="left_right" depart="159" />
    <vehicle id="left_down_71" type="car" route="left_down" depart="159" />
    <vehicle id="right_left_72" type="car" route="right_left" depart="162" />
    <vehicle id="left_right_73" type="car" route="left_right" depart="168" />
    <vehicle id="left_down_74" type="car" route="left_down" depart="170" />
    <vehicle id="right_left_75" type="car" route="right_left" depart="171" />
    <vehicle id="left_right_76" type="car" route="left_right" depart="175" />
    <vehicle id="left_right_77" type="car" route="left_right" depart="177" />
    <vehicle id="right_left_78" type="car" route="right_left" depart="181" />
    <vehicle id="left_right_79" type="car" route="left_right" depart="183" />
    <vehicle id="right_left_80" type="car" route="right_left" depart="183" />
    <vehicle id="down_right_81" type="car" route="down_right" depart="185" />
    <vehicle id="left_right_82" type="car" route="left_right" depart="186" />
    <vehicle id="left_down_83" type="car" route="left_down" depart="188" />
    <vehicle id="left_right_84" type="car" route="left_right" depart="189" />
    <vehicle id="left_right_85" type="car" route="left_right" depart="191" />
    <vehicle id="right_down_86" type="car" route="right_down" depart="191" />
    <vehicle id="right_left_87" type="car" route="right_left" depart="198" />
    <vehicle id="right_left_88" type="car" route="right_left" depart="199" />
    <vehicle id="left_right_89" type="car" route="left_right" depart="200" />
    <vehicle id="right_left_90" type="car" route="right_left" depart="207" />
    <vehicle id="right_left_91" type="car" route="right_left" depart="208" />
    <vehicle id="right_down_92" type="car" route="right_down" depart="211" />
    <vehicle id="left_right_93" type="car" route="left_right" depart="215" />
    <vehicle id="down_left_94" type="car" route="down_left" depart="215" />
    <vehicle id="left_right_95" type="car" route="left_right" depart="216" />
    <vehicle id="down_left_96" type="car" route="down_left" depart="219" />
    <vehicle id="right_left_97" type="car" route="right_left" depart="220" />
    <vehicle id="left_right_98" type="car" route="left_right" depart="222" />
    <vehicle id="right_down_99" type="car" route="right_down" depart="231" />
    <vehicle id="right_left_100" type="car" route="right_left" depart="232" />
    <vehicle id="down_right_101" type="car" route="down_right" depart="232" />
    <vehicle id="right_down_102" type="car" route="right_down" depart="243" />
    <vehicle id="down_right_103" type="car" route="down_right" depart="244" />
    <vehicle id="right_left_104" type="car" route="right_left" depart="245" />
    <vehicle id="left_right_105" type="car" route="left_right" depart="252" />
    <vehicle id="left_right_106" type="car" route="left_right" depart="254" />
    <vehicle id="left_right_107" type="car" route="left_right" depart="255" />
    <vehicle id="right_left_108" type="car" route="right_left" depart="260" />
    <vehicle id="left_right_109" type="car" route="left_right" depart="261" />
    <vehicle id="right_down_110" type="car" route="right_down" depart="263" />
    <vehicle id="right_left_111" type="car" route="right_left" depart="265" />
    <vehicle id="down_left_112" type="car" route="down_left" depart="273" />
    <vehicle id="right_left_113" type="car" route="right_left" depart="276" />
    <vehicle id="right_left_114" type="car" route="right_left" depart="285" />
    <vehicle id="down_left_115" type="car" route="down_left" depart="286" />
    <vehicle id="left_right_116" type="car" route="left_right" depart="288" />
    <vehicle id="down_left_117" type="car" route="down_left" depart="289" />
    <vehicle id="left_right_118" type="car" route="left_right" depart="291" />
    <vehicle id="right_left_119" type="car" route="right_left" depart="293" />
    <vehicle id="down_left_120" type="car" route="down_left" depart="295" />
    <vehicle id="down_left_121" type="car" route="down_left" depart="296" />
    <vehicle id="right_left_122" type="car" route="right_left" depart="298" />
    <vehicle id="right_down_123" type="car" route="right_down" depart="298" />
</routes>
