<?xml version="1.0" encoding="UTF-8"?>

<!-- generated on Sat 15 Feb 2020 01:42:08 PM WIB by Eclipse SUMO netedit Version 1.4.0
<configuration xmlns:xsi="http://www.w3.org/2001/XMLSchema-instance" xsi:noNamespaceSchemaLocation="http://sumo.dlr.de/xsd/netconvertConfiguration.xsd">

    <input>
        <sumo-net-file value="/home/nugroho/Projects/Deep_Reinforcement_Learning/proximal_policy_optimization/pytorch/env/sumo/test1.net.xml"/>
    </input>

    <output>
        <output-file value="/home/nugroho/Projects/Deep_Reinforcement_Learning/proximal_policy_optimization/pytorch/env/sumo/test1.net.xml"/>
    </output>

    <processing>
        <geometry.min-radius.fix.railways value="false"/>
        <geometry.max-grade.fix value="false"/>
        <offset.disable-normalization value="true"/>
        <lefthand value="false"/>
    </processing>

    <junctions>
        <no-turnarounds value="true"/>
        <junctions.corner-detail value="5"/>
        <junctions.limit-turn-speed value="5.5"/>
        <rectangular-lane-cut value="false"/>
    </junctions>

    <pedestrian>
        <walkingareas value="false"/>
    </pedestrian>

    <netedit>
        <additional-files value="/home/nugroho/Projects/Deep_Reinforcement_Learning/proximal_policy_optimization/pytorch/env/sumo/test1.add.xml"/>
    </netedit>

    <report>
        <aggregate-warnings value="5"/>
    </report>

</configuration>
-->

<additional xmlns:xsi="http://www.w3.org/2001/XMLSchema-instance" xsi:noNamespaceSchemaLocation="http://sumo.dlr.de/xsd/additional_file.xsd">
    <e1Detector id="detektor_titik_bawah_1" lane="gneE2_0" pos="9.00" freq="900.00" file="e1Detector_gneE2_0_2.xml"/>
    <e1Detector id="detektor_titik_bawah_2" lane="gneE2_1" pos="9.00" freq="900.00" file="e1Detector_gneE2_1_3.xml"/>
    <e1Detector id="detektor_titik_kanan_1" lane="gneE1_1" pos="9.00" freq="900.00" file="e1Detector_gneE1_1_1.xml"/>
    <e1Detector id="detektor_titik_kanan_2" lane="gneE1_0" pos="9.00" freq="900.00" file="e1Detector_gneE1_0_0.xml"/>
    <e1Detector id="detektor_titik_kiri_1" lane="gneE0_0" pos="9.00" freq="900.00" file="e1Detector_gneE0_0_5.xml"/>
    <e1Detector id="detektor_titik_kiri_2" lane="gneE0_1" pos="9.00" freq="900.00" file="e1Detector_gneE0_1_4.xml"/>
    <e2Detector id="detektor_bawah_1" lane="gneE6_1" pos="50.00" length="50.00" freq="900.00" file="e2Detector_gneE6_1_4.xml" friendlyPos="1"/>
    <e2Detector id="detektor_bawah_2" lane="gneE6_0" pos="50.00" length="50.00" freq="900.00" file="e2Detector_gneE6_0_5.xml" friendlyPos="1"/>
    <e2Detector id="detektor_kanan_1" lane="gneE5_0" pos="50.00" length="50.00" freq="900.00" file="e2Detector_gneE5_0_0.xml" friendlyPos="1"/>
    <e2Detector id="detektor_kanan_2" lane="gneE5_1" pos="50.00" length="50.00" freq="900.00" file="e2Detector_gneE5_1_1.xml" friendlyPos="1"/>
    <e2Detector id="detektor_kiri_1" lane="gneE4_1" pos="50.00" length="50.00" freq="900.00" file="e2Detector_gneE4_1_2.xml" friendlyPos="1"/>
    <e2Detector id="detektor_kiri_2" lane="gneE4_0" pos="50.00" length="50.00" freq="900.00" file="e2Detector_gneE4_0_3.xml" friendlyPos="1"/>
</additional>
