<?xml version="1.0" encoding="UTF-8"?>

<!-- generated on Tue 28 Jan 2020 09:18:43 PM WIB by Eclipse SUMO GUI Version 1.4.0
-->

<configuration xmlns:xsi="http://www.w3.org/2001/XMLSchema-instance" xsi:noNamespaceSchemaLocation="http://sumo.dlr.de/xsd/sumoConfiguration.xsd">

    <input>
        <net-file value="test1.net.xml"/>
        <route-files value="test1.rou.xml"/>
        <additional-files value="test1.add.xml"/>
    </input>

</configuration>
