<?xml version="1.0" encoding="UTF-8"?>

<!-- generated on Thu 30 Jan 2020 07:09:49 PM WIB by Eclipse SUMO netedit Version 1.4.0
<configuration xmlns:xsi="http://www.w3.org/2001/XMLSchema-instance" xsi:noNamespaceSchemaLocation="http://sumo.dlr.de/xsd/netconvertConfiguration.xsd">

    <input>
        <sumo-net-file value="/home/nugroho/Projects/Deep_Reinforcement_Learning/proximal_policy_optimization/env/sumo/test1.net.xml"/>
    </input>

    <output>
        <output-file value="/home/nugroho/Projects/Deep_Reinforcement_Learning/proximal_policy_optimization/env/sumo/test1.net.xml"/>
    </output>

    <processing>
        <geometry.min-radius.fix.railways value="false"/>
        <geometry.max-grade.fix value="false"/>
        <offset.disable-normalization value="true"/>
        <lefthand value="false"/>
    </processing>

    <junctions>
        <no-turnarounds value="true"/>
        <junctions.corner-detail value="5"/>
        <junctions.limit-turn-speed value="5.5"/>
        <rectangular-lane-cut value="false"/>
    </junctions>

    <pedestrian>
        <walkingareas value="false"/>
    </pedestrian>

    <netedit>
        <additional-files value="/home/nugroho/Projects/Deep_Reinforcement_Learning/proximal_policy_optimization/env/sumo/test1.add.xml"/>
    </netedit>

    <report>
        <aggregate-warnings value="5"/>
    </report>

</configuration>
-->

<net version="1.3" junctionCornerDetail="5" limitTurnSpeed="5.50" xmlns:xsi="http://www.w3.org/2001/XMLSchema-instance" xsi:noNamespaceSchemaLocation="http://sumo.dlr.de/xsd/net_file.xsd">

    <location netOffset="0.00,0.00" convBoundary="-80.00,-50.17,120.00,50.00" origBoundary="-10000000000.00,-10000000000.00,10000000000.00,10000000000.00" projParameter="!"/>

    <edge id=":tl_1_0" function="internal">
        <lane id=":tl_1_0_0" index="0" speed="13.89" length="20.80" shape="30.40,54.80 9.60,54.80"/>
        <lane id=":tl_1_0_1" index="1" speed="13.89" length="20.80" shape="30.40,51.60 9.60,51.60"/>
    </edge>
    <edge id=":tl_1_2" function="internal">
        <lane id=":tl_1_2_0" index="0" speed="9.84" length="21.99" shape="30.40,51.60 23.75,50.85 19.00,48.60 16.15,44.85 15.20,39.60"/>
    </edge>
    <edge id=":tl_1_3" function="internal">
        <lane id=":tl_1_3_0" index="0" speed="9.26" length="19.35" shape="30.40,51.60 25.15,50.85 21.40,48.60 19.15,44.85 18.40,39.60"/>
    </edge>
    <edge id=":tl_1_4" function="internal">
        <lane id=":tl_1_4_0" index="0" speed="6.51" length="9.03" shape="24.80,39.60 25.15,42.05 26.20,43.80 27.95,44.85 30.40,45.20"/>
    </edge>
    <edge id=":tl_1_5" function="internal">
        <lane id=":tl_1_5_0" index="0" speed="7.33" length="11.73" shape="24.80,39.60 25.15,43.45 26.20,46.20 27.95,47.85 30.40,48.40"/>
    </edge>
    <edge id=":tl_1_6" function="internal">
        <lane id=":tl_1_6_0" index="0" speed="9.84" length="21.99" shape="21.60,39.60 20.85,46.25 18.60,51.00 14.85,53.85 9.60,54.80"/>
    </edge>
    <edge id=":tl_1_7" function="internal">
        <lane id=":tl_1_7_0" index="0" speed="9.26" length="19.35" shape="21.60,39.60 20.85,44.85 18.60,48.60 14.85,50.85 9.60,51.60"/>
    </edge>
    <edge id=":tl_1_8" function="internal">
        <lane id=":tl_1_8_0" index="0" speed="6.51" length="9.03" shape="9.60,45.20 12.05,44.85 13.80,43.80 14.85,42.05 15.20,39.60"/>
    </edge>
    <edge id=":tl_1_9" function="internal">
        <lane id=":tl_1_9_0" index="0" speed="7.33" length="11.73" shape="9.60,45.20 13.45,44.85 16.20,43.80 17.85,42.05 18.40,39.60"/>
    </edge>
    <edge id=":tl_1_10" function="internal">
        <lane id=":tl_1_10_0" index="0" speed="13.89" length="20.80" shape="9.60,45.20 30.40,45.20"/>
        <lane id=":tl_1_10_1" index="1" speed="13.89" length="20.80" shape="9.60,48.40 30.40,48.40"/>
    </edge>

    <edge id="gneE0" from="tl_1" to="gneJ0" priority="-1" length="100.00">
        <lane id="gneE0_0" index="0" speed="13.89" length="100.00" shape="9.60,54.80 -80.00,54.80"/>
        <lane id="gneE0_1" index="1" speed="13.89" length="100.00" shape="9.60,51.60 -80.00,51.60"/>
    </edge>
    <edge id="gneE1" from="tl_1" to="gneJ2" priority="-1" length="100.00">
        <lane id="gneE1_0" index="0" speed="13.89" length="100.00" shape="30.40,45.20 120.00,45.20"/>
        <lane id="gneE1_1" index="1" speed="13.89" length="100.00" shape="30.40,48.40 120.00,48.40"/>
    </edge>
    <edge id="gneE2" from="tl_1" to="gneJ4" priority="-1" spreadType="center" length="100.00" shape="16.80,50.00 16.80,-50.17">
        <lane id="gneE2_0" index="0" speed="13.89" length="100.00" shape="15.20,39.60 15.20,-50.00"/>
        <lane id="gneE2_1" index="1" speed="13.89" length="100.00" shape="18.40,39.60 18.40,-50.00"/>
    </edge>
    <edge id="gneE4" from="gneJ0" to="tl_1" priority="-1" length="100.00">
        <lane id="gneE4_0" index="0" speed="13.89" length="100.00" shape="-80.00,45.20 9.60,45.20"/>
        <lane id="gneE4_1" index="1" speed="13.89" length="100.00" shape="-80.00,48.40 9.60,48.40"/>
    </edge>
    <edge id="gneE5" from="gneJ2" to="tl_1" priority="-1" length="100.00">
        <lane id="gneE5_0" index="0" speed="13.89" length="100.00" shape="120.00,54.80 30.40,54.80"/>
        <lane id="gneE5_1" index="1" speed="13.89" length="100.00" shape="120.00,51.60 30.40,51.60"/>
    </edge>
    <edge id="gneE6" from="gneJ4" to="tl_1" priority="-1" length="100.00">
        <lane id="gneE6_0" index="0" speed="13.89" length="100.00" shape="24.80,-50.00 24.80,39.60"/>
        <lane id="gneE6_1" index="1" speed="13.89" length="100.00" shape="21.60,-50.00 21.60,39.60"/>
    </edge>

    <tlLogic id="tl_1" type="static" programID="0" offset="0">
        <phase duration="10" state="GGrrrrrrGGGG"/>
        <phase duration="10" state="GGGGrrrrrrrr"/>
        <phase duration="10" state="rrrrGGGGGGrr"/>
    </tlLogic>

    <junction id="gneJ0" type="dead_end" x="-80.00" y="50.00" incLanes="gneE0_0 gneE0_1" intLanes="" shape="-80.00,50.00 -80.00,56.40 -80.00,50.00"/>
    <junction id="gneJ2" type="dead_end" x="120.00" y="50.00" incLanes="gneE1_0 gneE1_1" intLanes="" shape="120.00,50.00 120.00,43.60 120.00,50.00"/>
    <junction id="gneJ4" type="dead_end" x="20.00" y="-50.00" incLanes="gneE2_0 gneE2_1" intLanes="" shape="20.00,-50.00 13.60,-50.00 20.00,-50.00"/>
    <junction id="tl_1" type="traffic_light" x="20.00" y="50.00" incLanes="gneE5_0 gneE5_1 gneE6_0 gneE6_1 gneE4_0 gneE4_1" intLanes=":tl_1_0_0 :tl_1_0_1 :tl_1_2_0 :tl_1_3_0 :tl_1_4_0 :tl_1_5_0 :tl_1_6_0 :tl_1_7_0 :tl_1_8_0 :tl_1_9_0 :tl_1_10_0 :tl_1_10_1" shape="30.40,56.40 30.40,43.60 28.18,43.16 27.40,42.60 26.84,41.82 26.51,40.82 26.40,39.60 13.60,39.60 13.16,41.82 12.60,42.60 11.82,43.16 10.82,43.49 9.60,43.60 9.60,56.40">
        <request index="0"  response="000000000000" foes="000011000000" cont="0"/>
        <request index="1"  response="000000000000" foes="000011000000" cont="0"/>
        <request index="2"  response="111100000000" foes="111111000000" cont="0"/>
        <request index="3"  response="111100000000" foes="111111000000" cont="0"/>
        <request index="4"  response="110000000000" foes="110000000000" cont="0"/>
        <request index="5"  response="110000000000" foes="110000000000" cont="0"/>
        <request index="6"  response="110000001111" foes="110000001111" cont="0"/>
        <request index="7"  response="110000001111" foes="110000001111" cont="0"/>
        <request index="8"  response="000000000000" foes="000000001100" cont="0"/>
        <request index="9"  response="000000000000" foes="000000001100" cont="0"/>
        <request index="10" response="000000000000" foes="000011111100" cont="0"/>
        <request index="11" response="000000000000" foes="000011111100" cont="0"/>
    </junction>

    <connection from="gneE4" to="gneE2" fromLane="0" toLane="0" via=":tl_1_8_0" tl="tl_1" linkIndex="8" dir="r" state="O"/>
    <connection from="gneE4" to="gneE2" fromLane="0" toLane="1" via=":tl_1_9_0" tl="tl_1" linkIndex="9" dir="r" state="O"/>
    <connection from="gneE4" to="gneE1" fromLane="0" toLane="0" via=":tl_1_10_0" tl="tl_1" linkIndex="10" dir="s" state="O"/>
    <connection from="gneE4" to="gneE1" fromLane="1" toLane="1" via=":tl_1_10_1" tl="tl_1" linkIndex="11" dir="s" state="O"/>
    <connection from="gneE5" to="gneE0" fromLane="0" toLane="0" via=":tl_1_0_0" tl="tl_1" linkIndex="0" dir="s" state="O"/>
    <connection from="gneE5" to="gneE0" fromLane="1" toLane="1" via=":tl_1_0_1" tl="tl_1" linkIndex="1" dir="s" state="O"/>
    <connection from="gneE5" to="gneE2" fromLane="1" toLane="0" via=":tl_1_2_0" tl="tl_1" linkIndex="2" dir="l" state="o"/>
    <connection from="gneE5" to="gneE2" fromLane="1" toLane="1" via=":tl_1_3_0" tl="tl_1" linkIndex="3" dir="l" state="o"/>
    <connection from="gneE6" to="gneE1" fromLane="0" toLane="0" via=":tl_1_4_0" tl="tl_1" linkIndex="4" dir="r" state="o"/>
    <connection from="gneE6" to="gneE1" fromLane="0" toLane="1" via=":tl_1_5_0" tl="tl_1" linkIndex="5" dir="r" state="o"/>
    <connection from="gneE6" to="gneE0" fromLane="1" toLane="0" via=":tl_1_6_0" tl="tl_1" linkIndex="6" dir="l" state="o"/>
    <connection from="gneE6" to="gneE0" fromLane="1" toLane="1" via=":tl_1_7_0" tl="tl_1" linkIndex="7" dir="l" state="o"/>

    <connection from=":tl_1_0" to="gneE0" fromLane="0" toLane="0" dir="s" state="M"/>
    <connection from=":tl_1_0" to="gneE0" fromLane="1" toLane="1" dir="s" state="M"/>
    <connection from=":tl_1_2" to="gneE2" fromLane="0" toLane="0" dir="l" state="M"/>
    <connection from=":tl_1_3" to="gneE2" fromLane="0" toLane="1" dir="l" state="M"/>
    <connection from=":tl_1_4" to="gneE1" fromLane="0" toLane="0" dir="r" state="M"/>
    <connection from=":tl_1_5" to="gneE1" fromLane="0" toLane="1" dir="r" state="M"/>
    <connection from=":tl_1_6" to="gneE0" fromLane="0" toLane="0" dir="l" state="M"/>
    <connection from=":tl_1_7" to="gneE0" fromLane="0" toLane="1" dir="l" state="M"/>
    <connection from=":tl_1_8" to="gneE2" fromLane="0" toLane="0" dir="r" state="M"/>
    <connection from=":tl_1_9" to="gneE2" fromLane="0" toLane="1" dir="r" state="M"/>
    <connection from=":tl_1_10" to="gneE1" fromLane="0" toLane="0" dir="s" state="M"/>
    <connection from=":tl_1_10" to="gneE1" fromLane="1" toLane="1" dir="s" state="M"/>

</net>
